LAMMPS (29 Aug 2024 - Update 1)
# Generated by python script of Adam Prada
units      lj
atom_style hybrid ellipsoid bond molecular
dimension   3
boundary   p p p
processors   * 1 1               # set the number of MPI processors in Ly and Lz directions to 1
read_data   lmpdat_cyl_mu3.0_P-1.0e-01_N005000_R04_Pdamp500.0_seed123.in
Reading data file ...
  orthogonal box = (-86.6025 -100 -100) to (86.6025 100 100)
  reading atoms ...
  5000 atoms
  5000 ellipsoids
Finding 1-2 1-3 1-4 neighbors ...
     0 = max # of 1-2 neighbors
     0 = max # of 1-3 neighbors
     0 = max # of 1-4 neighbors
     1 = max # of special neighbors
# This is so that transparency is in the XYZ files
fix fTransparency all property/atom d_transparency
set type * d_transparency 0.0
Setting atom values ...
  5000 settings made for d_transparency
set type 1 d_transparency 0.8
Setting atom values ...
  5000 settings made for d_transparency
group      mem      type 1:1        # membrane
5000 atoms in group mem
group      standard_beads union mem
5000 atoms in group standard_beads
# This overrides stuff in the data file (where density is used)
set group standard_beads mass 1.0
Setting atom values ...
  5000 settings made for mass
#********************************************************************************
# If quaternion parameters were set here
#********************************************************************************
#set type 1 shape  1 0.99 0.99

# Setting the quaternion parameters like this is:
# a,b,c = unit vector to rotate particle around via right-hand rule
# theta = rotation angle (degrees)
#set          group all quat 0 -1 0  90
#********************************************************************************
# Defining quaternion computes for output of orientation
#********************************************************************************
compute      quat all property/atom quatw quati quatj quatk
compute      diameter all property/atom shapex shapey shapez
#********************************************************************************
# Other variables
#********************************************************************************
# Each membrane sphere/ellipsoid has 1 hidden degree of freedom
# Each ESCRT sphere/ellipsoid has 3 hidden degrees of freedom
variable    dofsub             equal    "count(mem)+3*count(escrt)"
variable    Nmem               equal    "count(mem)"
variable    kinetic_energy     equal    ke
variable    potential_energy   equal    pe
variable    total_energy       equal    etotal
#************************************
# Box size calculation
#************************************
variable xwidth equal xhi-xlo
variable ywidth equal yhi-ylo
variable zwidth equal zhi-zlo
#********************************************************************************
# thermodynamic parameters
#********************************************************************************
# Target temperature
variable my_temp equal 1.0
# Damping parameter of thermostat
variable my_Tdamp0 equal 1.000000
variable my_Tdamp equal 1.000000
# Target pressure
variable my_press equal -0.100000*5000
# Damping parameter for barostat
variable my_Pdamp equal 500.000000
# Drag parameter for barostat
variable my_drag equal 0.000000
variable my_nreset equal 100
variable    myroot        equal    1.122462
#********************************************************************************
# membrane parameters
#********************************************************************************
variable    rc           equal    2.6
variable    mu           equal    3.000000
variable    zeta         equal    4
variable    eps          equal    4.34
variable    sigma        equal    1.00
variable    theta0_11    equal    0
# r_min = sigma * 2^(1/6)
variable    rmin        equal    1.122462
variable    beta    equal    0
# Note that beta = sin(theta_0)
variable    fake_ellipse    atom    2
#********************************************************************************
# ESCRT parameters
#********************************************************************************
#**************************
# Membrane-ESCRT attraction
#**************************
# NB: This sigma is the LJ parameter, not simulation unit
variable    sigma_atr   equal   1
variable    eps_atr     equal   4
variable    rc_atr      equal   1.3*1.122462*1
#**************************
# Membrane-ESCRT repulsion
#**************************
variable    sigma_rep   equal   1
variable    eps_rep     equal   2
variable    rc_rep      equal   1.122462*1
#********************************************************************************
# pair style
#********************************************************************************
#******************
# Without LJ overlay
#******************
pair_style ylz 2.6
pair_coeff * * 0 0 0 0 0 0
pair_coeff    1*1  1*1   4.34 1 4 3 0 2.6
#********************************************************************************
# neigh modify
#********************************************************************************
# These should be optimised for the particular simulation

# Reduce the delay from default 10 to 2 to get rid of dangeours builds
#neigh_modify   delay 2
# Max number stored in a single neighbor page
# Communicate atoms between processors from this far away
#comm_modify   cutoff 50
#********************************************************************************
# Various computes
#********************************************************************************
compute C_E_kin_trans all ke
compute C_E_kin_rot all erotate/asphere
compute C_E_pot all pe
variable V_E_tot equal c_C_E_pot+c_C_E_kin_trans+c_C_E_kin_rot

# for fix commands, the 1st and 2nd arguments are ID and group-ID, then the style (subcommand)
# ID = user assigned name for the fix
# group-ID = ID of the group of atoms to apply the fix to
# ave/time = output global variables, possibly with averaging over time
# Nevery = input values this every timesteps
# Nrepeat = # of times input values should be read before averaging
# Nfreq = calculate averages every this time step
# list of values with v_ prepended = value calculated by an equal style or vector-style variable with name
# file lmpout_energy.dat = the keyword + argument
fix fix_energies all ave/time 100 1 100  v_V_E_tot c_C_E_pot c_C_E_kin_trans c_C_E_kin_rot file lmpout_eqn_eng_cyl_mu3.0_P-1.0e-01_N005000_R04_Pdamp500.0_seed123.dat

#************************************
# Temperature computes
#************************************
compute C_temp_def mem temp/asphere
#************************************
# Default pressure compute
#************************************
compute C_press_def all pressure C_temp_def

# If correcting the number of degrees of freedom

# ^ This compute gives a scalar, which is the total pressure (P_xx+P_yy+P_zz)/3
# but it also gives a vector with components P_xx, P_yy, P_zz, P_xy, P_xz, P_yz
fix fix_eqn_deft mem ave/time 100 1 100 c_C_press_def c_C_press_def[1] c_C_press_def[2] c_C_press_def[3] c_C_press_def[4] c_C_press_def[5] c_C_press_def[6] c_C_temp_def file lmpout_eqn_press_deft_cyl_mu3.0_P-1.0e-01_N005000_R04_Pdamp500.0_seed123.dat

#************************************
# Translation pressure compute
#************************************
compute        C_temp_tran all temp
compute        C_press_tran all pressure C_temp_tran
fix fix_eqn_tran mem ave/time 100 1 100 c_C_press_tran c_C_press_tran[1] c_C_press_tran[2] c_C_press_tran[3] c_C_press_tran[4] c_C_press_tran[5] c_C_press_tran[6] c_C_temp_tran file lmpout_eqn_press_tran_cyl_mu3.0_P-1.0e-01_N005000_R04_Pdamp500.0_seed123.dat

#**************************************************
# Computes used for barostatting and thermostatting
#**************************************************
compute        C_temp_baro all temp
compute        C_press_baro all pressure C_temp_baro novolume
fix fix_eqn_baro mem ave/time 100 1 100 c_C_press_baro c_C_press_baro[1] c_C_press_baro[2] c_C_press_baro[3] c_C_press_baro[4] c_C_press_baro[5] c_C_press_baro[6] c_C_temp_tran file lmpout_eqn_press_baro_cyl_mu3.0_P-1.0e-01_N005000_R04_Pdamp500.0_seed123.dat

#************************************
# Custom translation pressure calculation
#************************************
compute        peratom_null all stress/atom NULL
compute        p_null all reduce sum c_peratom_null[1] c_peratom_null[2] c_peratom_null[3] c_peratom_null[4] c_peratom_null[5] c_peratom_null[6]
variable       V_press_scal_null equal -(c_p_null[1]+c_p_null[2]+c_p_null[3])/(3*vol)
variable       V_press_vec_null vector -c_p_null/vol
fix fix_eqn_null all ave/time 100 1 100 v_V_press_scal_null v_V_press_vec_null[1] v_V_press_vec_null[2] v_V_press_vec_null[3] v_V_press_vec_null[4] v_V_press_vec_null[5] v_V_press_vec_null[6] c_C_temp_tran file lmpout_eqn_press_tran2_cyl_mu3.0_P-1.0e-01_N005000_R04_Pdamp500.0_seed123.dat

#************************************
# Custom translation pressure calculation without volume
#************************************
compute        peratom_null2 all stress/atom NULL
compute        p_null2 all reduce sum c_peratom_null2[1] c_peratom_null2[2] c_peratom_null2[3] c_peratom_null2[4] c_peratom_null2[5] c_peratom_null2[6]
variable       V_press_scal_null2 equal -(c_p_null2[1]+c_p_null2[2]+c_p_null2[3])/(3)
variable       V_press_vec_null2 vector -c_p_null2
fix fix_eqn_null2 all ave/time 100 1 100 v_V_press_scal_null2 v_V_press_vec_null2[1] v_V_press_vec_null2[2] v_V_press_vec_null2[3] v_V_press_vec_null2[4] v_V_press_vec_null2[5] v_V_press_vec_null2[6] c_C_temp_tran file lmpout_eqn_press_tran_novol2_cyl_mu3.0_P-1.0e-01_N005000_R04_Pdamp500.0_seed123.dat
#********************************************************************************
# NVT equilibration
#********************************************************************************
# Heating up the membrane, before turning on the barostat
# (The barostat dislikes zero temperature)
# for the choice of angmom, see https://docs.lammps.org/fix_langevin.html
fix fLANG_standard         standard_beads   langevin 1 1 1 123 zero yes
dump         coords_init   all   custom 1 lmpout_init_xyz_cyl_mu3.0_P-1.0e-01_N005000_R04_Pdamp500.0_seed123.xyz.gz id type x y z v_fake_ellipse c_diameter[2] c_diameter[3] c_quat[1] c_quat[2] c_quat[3] c_quat[4] d_transparency
dump_modify  coords_init colname c_quat[1] quatw colname c_quat[2] quati colname c_quat[3] quatj colname c_quat[4] quatk
dump_modify  coords_init colname v_fake_ellipse shapex colname c_diameter[2] shapey colname c_diameter[3] shapez
dump_modify   coords_init   sort id
dump_modify  coords_init colname d_transparency Transparency
dump_modify coords_init format float "%.5g"
compute      stress all stress/atom NULL
dump         coords   all   custom 100 lmpout_xyz_cyl_mu3.0_P-1.0e-01_N005000_R04_Pdamp500.0_seed123.xyz.gz id type x y z c_diameter[1] c_diameter[2] c_diameter[3] c_quat[1] c_quat[2] c_quat[3] c_quat[4] d_transparency c_stress[1] c_stress[2] c_stress[3]
dump_modify  coords colname c_quat[1] quatw colname c_quat[2] quati colname c_quat[3] quatj colname c_quat[4] quatk
dump_modify  coords colname c_diameter[1] shapex colname c_diameter[2] shapey colname c_diameter[3] shapez
dump_modify   coords   sort id
dump_modify   coords colname d_transparency Transparency
dump_modify coords format float "%.5g"
fix fNVE_membrane mem     nve/asphere
timestep   0.010000
run      0

CITE-CITE-CITE-CITE-CITE-CITE-CITE-CITE-CITE-CITE-CITE-CITE-CITE

Your simulation uses code contributions which should be cited:

- Type Label Framework: https://doi.org/10.1021/acs.jpcb.3c08419

@Article{Gissinger24,
 author = {Jacob R. Gissinger, Ilia Nikiforov, Yaser Afshar, Brendon Waters, Moon-ki Choi, Daniel S. Karls, Alexander Stukowski, Wonpil Im, Hendrik Heinz, Axel Kohlmeyer, and Ellad B. Tadmor},
 title = {Type Label Framework for Bonded Force Fields in LAMMPS},
 journal = {J. Phys. Chem. B},
 year =    2024,
 volume =  128,
 number =  13,
 pages =   {3282â€“-3297}
}

- pair ylz command:

@Article{Yuan10,
 author =  {H. Yuan, C. Huang, J. Li, G. Lykotrafitis, and S. Zhang},
 title =   {One-particle-thick, solvent-free, coarse-grained model for biological and biomimetic fluid membranes},
 journal = {Phys. Rev. E},
 year =    2010,
 volume =  82,
 pages =   {011905}
}

CITE-CITE-CITE-CITE-CITE-CITE-CITE-CITE-CITE-CITE-CITE-CITE-CITE

Generated 0 of 0 mixed pair_coeff terms from geometric mixing rule
Step          Temp          E_pair         E_mol          TotEng         Press
0   0             -13.927109      0             -13.927109     -0.0022136875
Loop time of 1.417e-06 on 1 procs for 0 steps with 5000 atoms

undump coords_init
thermo      100
restart 50000 lmpout_restart_cont_1.dat lmpout_restart_cont_2.dat
#*********************************************
# NVT0 equilibration with Tdamp0
#*********************************************
unfix fLANG_standard
fix fLANG_standard         standard_beads   langevin 1 1 1 123 zero yes
run   10000
Generated 0 of 0 mixed pair_coeff terms from geometric mixing rule
Step          Temp          E_pair         E_mol          TotEng         Press
0   0             -13.927109      0             -13.927109     -0.0022136875
Averages over the last 51 of 101 rows, steps 5000 to 10000:
Temp E_pair E_mol TotEng Press
0.998526 -11.3207 0 -9.82317 -0.000230689
Loop time of 38.4088 on 1 procs for 10000 steps with 5000 atoms

unfix fLANG_standard
fix fLANG_standard         standard_beads   langevin 1 1 1 123 zero yes
#*********************************************
# NVT equilibration
#*********************************************
run   40000
Generated 0 of 0 mixed pair_coeff terms from geometric mixing rule
Step          Temp          E_pair         E_mol          TotEng         Press
10000   0.99412868    -11.303876      0             -9.812981      -0.00022865964
Averages over the last 201 of 401 rows, steps 30000 to 50000:
Temp E_pair E_mol TotEng Press
0.998195 -11.3102 0 -9.81323 -0.00023908
Loop time of 8399.52 on 1 procs for 40000 steps with 5000 atoms

write_restart lmpout_restart_01_t_nvt.dat
System init for write_restart ...
Generated 0 of 0 mixed pair_coeff terms from geometric mixing rule
# Remove membrane propagator
unfix fNVE_membrane
write_restart lmpout_restart_02_t_npt.dat
System init for write_restart ...
Generated 0 of 0 mixed pair_coeff terms from geometric mixing rule
#********************************************************************************
# Production run
#********************************************************************************
compute msd mem msd
fix      fNPH_membrane         mem     nph/asphere x -500 -500 500  drag 0 dilate mem nreset 100
fix_modify fNPH_membrane temp C_temp_baro press C_press_baro
fix fix_boxsize_output all ave/time 100 1 100 v_xwidth v_ywidth v_zwidth format "%18.6f" file lmpout_boxsize_cyl_mu3.0_P-1.0e-01_N005000_R04_Pdamp500.0_seed123.dat
fix fix_bar_deft all ave/time 100 1 100 c_C_press_def c_C_press_def[1] c_C_press_def[2] c_C_press_def[3] c_C_press_def[4] c_C_press_def[5] c_C_press_def[6] c_C_temp_def file lmpout_run_press_deft_cyl_mu3.0_P-1.0e-01_N005000_R04_Pdamp500.0_seed123.dat
fix fix_bar_tran all ave/time 100 1 100 c_C_press_tran c_C_press_tran[1] c_C_press_tran[2] c_C_press_tran[3] c_C_press_tran[4] c_C_press_tran[5] c_C_press_tran[6] c_C_temp_tran file lmpout_run_press_tran_cyl_mu3.0_P-1.0e-01_N005000_R04_Pdamp500.0_seed123.dat
run    1000000
Generated 0 of 0 mixed pair_coeff terms from geometric mixing rule
Step          Temp          E_pair         E_mol          TotEng         Press          Volume
50000   1.003915      -11.279954      0             -9.7743823     -0.00024104808  6928200
Averages over the last 5001 of 10001 rows, steps 550000 to 1050000:
Temp E_pair E_mol TotEng Press Volume
0.999901 -12.1086 0 -10.6091 -9.00195e-05 1.96607e+06
Loop time of 61387 on 1 procs for 1000000 steps with 5000 atoms

write_restart lmpout_restart_03_t_middle.dat
System init for write_restart ...
Generated 0 of 0 mixed pair_coeff terms from geometric mixing rule
